6
	Energy:      99.9274857
N         -2.08675        2.06879       -0.00000
N         -2.07376        0.27544       -0.00000
O         -1.00313        2.65640       -0.00000
O         -3.17498        2.67150       -0.00000
O         -3.14192       -0.34409        0.00000
O         -0.97027       -0.29485       -0.00000
