11
	Energy:       7.0914145
C         -3.83639        1.56362        0.00439
C         -2.48304        2.34744       -0.01557
H         -4.32558        1.57473       -0.99435
H         -4.57201        2.12716        0.62088
H         -3.83727        0.55560        0.37404
C         -1.04684        1.73014       -0.00709
H         -2.51639        3.01462        0.85147
H         -2.52402        2.98822       -0.89292
H         -0.76274        1.22653        0.92439
H         -0.31298        2.56115       -0.08743
H         -0.80496        1.07774       -0.84855
